INIT MASTER(S)
NASTRAN SYSTEM(442)=-1,SYSTEM(319)=1
ID cone,FEMAP
SOL SESTATIC
CEND
  TITLE = 1
  ECHO = NONE
  DISPLACEMENT(PLOT) = ALL
  SPCFORCE(PLOT) = ALL
  OLOAD(PLOT) = ALL
  FORCE(PLOT,CORNER) = ALL
  STRESS(PLOT,CORNER) = ALL
  SPC = 1
  LOAD = 1
BEGIN BULK
$ ***************************************************************************
$   Written by : Femap
$   Version    : 2021.2.1
$   Translator : Simcenter Nastran
$   From Model : C:\Users\4710707\Desktop\automatizationCalc\models\cone_mapped_mesh.modfem
$   Date       : Thu Apr 16 16:57:40 2026
$   Output To  : C:\Users\4710707\Desktop\automatizationCalc\models\
$ ***************************************************************************
$
PARAM,PRGPST,NO
PARAM,POST,-1
PARAM,OGEOM,NO
PARAM,AUTOSPC,YES
PARAM,K6ROT,100.
PARAM,GRDPNT,0
CORD2C         1       0      0.      0.      0.      0.      0.      1.+FEMAPC1
+FEMAPC1      1.      0.      1.        
CORD2S         2       0      0.      0.      0.      0.      0.      1.+FEMAPC2
+FEMAPC2      1.      0.      1.        
$ Femap Load Set 1 : Ěîé íŕáîđ íŕăđóçîę
FORCE          1     343       0      1.      0.      0.  -1000.
$ Femap Constraint Set 1 : Fixed Base
SPC1           1  123456     342
$ Femap Property 1 : Beam_Z_Section_100x50
$ Femap PropShape 1 : 13,0,0.1,0.05,0.05,0.005,0.005,0.005
$ Femap PropMethod 1 : 13,0,1,0.
$ Femap PropOrient 1 : 13,0,0.,0.,0.,0.,0.,-1.,0.,0.
PBEAM          1       1   9.5-43.5823-71.4329-6-5.344-77.9845-9      0.+       
+             0.      0.      0.      0.      0.      0.      0.      0.+       
+           YESA      1.                                                +       
+       .4782189.4478537                                                        
$ Femap Property 2 : Cone_Shell_Property
PSHELL         2       1    .005       1               1              0.
$ Femap Material 1 : Global_Steel
MAT1           1  2.1+11              .3   7850.      0.      0.        
GRID           1       0      .5      0.     1.5       0
GRID           2       0.4972609-.052264     1.5       0
GRID           3       0.4890738-.103956     1.5       0
GRID           4       0.4755283-.154508     1.5       0
GRID           5       0.4567727-.203368     1.5       0
GRID           6       0.4330127    -.25     1.5       0
GRID           7       0.4045085-.293893     1.5       0
GRID           8       0.3715724-.334565     1.5       0
GRID           9       0.3345653-.371572     1.5       0
GRID          10       0.2938926-.404508     1.5       0
GRID          11       0     .25-.433013     1.5       0
GRID          12       0.2033683-.456773     1.5       0
GRID          13       0.1545085-.475528     1.5       0
GRID          14       0.1039558-.489074     1.5       0
GRID          15       0.0522642-.497261     1.5       0
GRID          16       0      0.     -.5     1.5       0
GRID          17       0-.052264-.497261     1.5       0
GRID          18       0-.103956-.489074     1.5       0
GRID          19       0-.154508-.475528     1.5       0
GRID          20       0-.203368-.456773     1.5       0
$ ... 642 like lines cut
CQUAD4         1       2       1       2      81      80                
CQUAD4         2       2       2       3      82      81                
CQUAD4         3       2       3       4      83      82                
CQUAD4         4       2       4       5      84      83                
CQUAD4         5       2       5       6      85      84                
CQUAD4         6       2       6       7      86      85                
CQUAD4         7       2       7       8      87      86                
CQUAD4         8       2       8       9      88      87                
CQUAD4         9       2       9      10      89      88                
CQUAD4        10       2      10      11      90      89                
CQUAD4        11       2      11      12      91      90                
CQUAD4        12       2      12      13      92      91                
CQUAD4        13       2      13      14      93      92                
CQUAD4        14       2      14      15      94      93                
CQUAD4        15       2      15      16      95      94                
CQUAD4        16       2      16      17      96      95                
CQUAD4        17       2      17      18      97      96                
CQUAD4        18       2      18      19      98      97                
CQUAD4        19       2      19      20      99      98                
CQUAD4        20       2      20      21     100      99                
$ ... 580 like lines cut
CBEAM        601       1      31      32      0.      1.      0.        +       
+                       .0498059  -.0225-.016602.0498059  -.0225-.016602
CBEAM        602       1      32      33      0.      1.      0.        +       
+                       .0498059  -.0225-.016602.0498059  -.0225-.016602
CBEAM        603       1      33      34      0.      1.      0.        +       
+                       .0498059  -.0225-.016602.0498059  -.0225-.016602
CBEAM        604       1      34      35      0.      1.      0.        +       
+                       .0498059  -.0225-.016602.0498059  -.0225-.016602
CBEAM        605       1      35      36      0.      1.      0.        +       
+                       .0498059  -.0225-.016602.0498059  -.0225-.016602
CBEAM        606       1      36      37      0.      1.      0.        +       
+                       .0498059  -.0225-.016602.0498059  -.0225-.016602
CBEAM        607       1      37      38      0.      1.      0.        +       
+                       .0498059  -.0225-.016602.0498059  -.0225-.016602
CBEAM        608       1      38      39      0.      1.      0.        +       
+                       .0498059  -.0225-.016602.0498059  -.0225-.016602
CBEAM        609       1      39      40      0.      1.      0.        +       
+                       .0498059  -.0225-.016602.0498059  -.0225-.016602
CBEAM        610       1      40      41      0.      1.      0.        +       
+                       .0498059  -.0225-.016602.0498059  -.0225-.016602
CBEAM        611       1      26     105     -.5.8660254      0.        +       
+                       .0543832.0054174-.016602.0543832.0054174-.016602
CBEAM        612       1     105     134     -.5.8660254      0.        +       
+                       .0543832.0054174-.016602.0543832.0054174-.016602
CBEAM        613       1     134     163     -.5.8660254      0.        +       
+                       .0543832.0054174-.016602.0543832.0054174-.016602
CBEAM        614       1     163     192     -.5.8660254      0.        +       
+                       .0543832.0054174-.016602.0543832.0054174-.016602
CBEAM        615       1     192     221     -.5.8660254      0.        +       
+                       .0543832.0054174-.016602.0543832.0054174-.016602
CBEAM        616       1     221     250     -.5.8660254      0.        +       
+                       .0543832.0054174-.016602.0543832.0054174-.016602
CBEAM        617       1     250     279     -.5.8660254      0.        +       
+                       .0543832.0054174-.016602.0543832.0054174-.016602
CBEAM        618       1     279     308     -.5.8660254      0.        +       
+                       .0543832.0054174-.016602.0543832.0054174-.016602
CBEAM        619       1     308     337     -.5.8660254      0.        +       
+                       .0543832.0054174-.016602.0543832.0054174-.016602
CBEAM        620       1     337      46     -.5.8660254      0.        +       
+                       .0543832.0054174-.016602.0543832.0054174-.016602
$ ... 200 like lines cut
RBE2         721     342              41      42      43      44      45+       
+             46      47      48      49      50      51      52      53+       
+             54      55      56      57      58      59      60      61+       
+             62      63      64      65      66      67      68      69+       
+             70      71     393     394     395     396     397     398+       
+            399     400     401     402     403     404     405     406+       
+            407     408     409     410     411     412     413     414+       
+            415     416     417     418     419     420     421
RBE2         722     343               1       2       3       4       5+       
+              6       7       8       9      10      11      12      13+       
+             14      15      16      17      18      19      20      21+       
+             22      23      24      25      26      27      28      29+       
+             30      31     353     354     355     356     357     358+       
+            359     360     361     362     363     364     365     366+       
+            367     368     369     370     371     372     373     374+       
+            375     376     377     378     379     380     381
ENDDATA c5375a09
