INIT MASTER(S)
NASTRAN SYSTEM(442)=-1,SYSTEM(319)=1
ID opt,FEMAP
SOL DESOPT
CEND
  ANALYSIS = STATICS
  DESOBJ(MIN) = 2
  DESSUB = 6
  TITLE = Simcenter Nastran DesTopOpt Analysis Set
  ECHO = PUNCH(BSTBULK)
  DISPLACEMENT(PLOT) = ALL
  SPCFORCE(PLOT) = ALL
  OLOAD(PLOT) = ALL
  FORCE(PLOT,CORNER) = ALL
  STRESS(PLOT,CORNER) = ALL
  SPC = 1
  LOAD = 1
SUBCASE 1
  SUBTITLE = Static
SUBCASE = 2
ANALYSIS = BUCK
METHOD = 1
DESSUB = 2
DISPLACEMENT(PLOT) = ALL
STRESS(PLOT.CORNER) = ALL
BEGIN BULK
DOPTPRM,DESMAX,35,METHOD,3,GMAX,0.02,CONVDV,0.01,+
+,CONV1,0.01,CONVPR,0.01,APRCOD,3
EIGRL, 1, , , 5
DRESP1,7000,R7000,LAMA,,,1
DCONSTR,2,7000,1.3
DRESP1,7001,R7001,LAMA,,,2
DCONSTR,2,7001,1.3
DRESP1,7002,R7002,LAMA,,,3
DCONSTR,2,7002,1.3
DRESP1,7003,R7003,LAMA,,,4
DCONSTR,2,7003,1.3
DRESP1,7004,R7004,LAMA,,,5
DCONSTR,2,7004,1.3
PARAM,NASPRT,2
$ ***************************************************************************
$   Written by : Femap
$   Version    : 2021.2.1
$   Translator : Simcenter Nastran
$   From Model : C:\Users\4710707\Desktop\automatizationCalc\models\opt_1.modfem
$   Date       : Wed Apr 29 23:53:02 2026
$   Output To  : C:\Users\4710707\Desktop\automatizationCalc\models\
$ ***************************************************************************
$
PARAM,PRGPST,NO
PARAM,POST,-1
PARAM,OGEOM,NO
PARAM,AUTOSPC,YES
PARAM,K6ROT,100.
PARAM,GRDPNT,0
DRESP1         2OBJECTIV  WEIGHT
DESVAR, 1, FEMAP1, 2.0, 1.0, 5.0
DVPREL1        1  PSHELL       1       T      1.      5.      0.        +
+              1      1.
DCONADD        6       5
DCONSTR, 5, 1, , 270.0
DRESP1         1     DO1  STRESS  PSHELL              11               1
CORD2C         1       0      0.      0.      0.      0.      0.      1.+FEMAPC1
+FEMAPC1      1.      0.      1.
CORD2S         2       0      0.      0.      0.      0.      0.      1.+FEMAPC2
+FEMAPC2      1.      0.      1.
$ Femap Load Set 1 : Untitled
FORCE          1    2037       0      1.      0.      0.-645000.
$ Femap Constraint Set 1 : Untitled
SPC1           1  123456    2036
$ Femap Property 1 : Shell
PSHELL         1       1      1.       1               1              0.
$ Femap Property 2 : Profile_450018
$ Femap PropShape 2 : 13,0,25.,25.,25.,3.,3.,3.
$ Femap PropMethod 2 : 13,0,1,0.
$ Femap PropOrient 2 : 13,0,0.,0.,0.,0.,0.,0.,0.,0.
PBEAM          2       1    207.26005.2519977.25 -18150.622.0621      0.+       
+             0.      0.      0.      0.      0.      0.      0.      0.+       
+           YESA      1.                                                +       
+       .6457787 .285478                                1547121.                
$ Femap Material 1 : Aluminium
MAT1           1  78000.              .3   2.7-9      0.      0.        
GRID           1       0   640.5      0.   1036.       0
GRID           2       0639.4164-37.2418   1036.       0
GRID           3       0636.1692-74.3575   1036.       0
GRID           4       0630.7694-111.222   1036.       0
GRID           5       0623.2352-147.709   1036.       0
GRID           6       0613.5923-183.697   1036.       0
GRID           7       0601.8731-219.064   1036.       0
GRID           8       0588.1174-253.689   1036.       0
GRID           9       0572.3717-287.456   1036.       0
GRID          10       0554.6893 -320.25   1036.       0
GRID          11       0535.1299-351.961   1036.       0
GRID          12       0513.7599 -382.48   1036.       0
GRID          13       0490.6515-411.705   1036.       0
GRID          14       0465.8828-439.538   1036.       0
GRID          15       0439.5378-465.883   1036.       0
GRID          16       0411.7055-490.651   1036.       0
GRID          17       0382.4801 -513.76   1036.       0
GRID          18       0351.9605 -535.13   1036.       0
GRID          19       0  320.25-554.689   1036.       0
GRID          20       0287.4559-572.372   1036.       0
$ ... 3978 like lines cut
CQUAD4         1       1       1       2     181     180              .5
CQUAD4         2       1       2       3     182     181              .5
CQUAD4         3       1       3       4     183     182              .5
CQUAD4         4       1       4       5     184     183              .5
CQUAD4         5       1       5       6     185     184              .5
CQUAD4         6       1       6       7     186     185              .5
CQUAD4         7       1       7       8     187     186              .5
CQUAD4         8       1       8       9     188     187              .5
CQUAD4         9       1       9      10     189     188              .5
CQUAD4        10       1      10      11     190     189              .5
CQUAD4        11       1      11      12     191     190              .5
CQUAD4        12       1      12      13     192     191              .5
CQUAD4        13       1      13      14     193     192              .5
CQUAD4        14       1      14      15     194     193              .5
CQUAD4        15       1      15      16     195     194              .5
CQUAD4        16       1      16      17     196     195              .5
CQUAD4        17       1      17      18     197     196              .5
CQUAD4        18       1      18      19     198     197              .5
CQUAD4        19       1      19      20     199     198              .5
CQUAD4        20       1      20      21     200     199              .5
$ ... 3868 like lines cut
SPOINT    100001                        
SPOINT    100002                        
CBEAM       3889       2      55      56      0.      1.      0.        +       
+                        12.4263    -11.-1.35538 12.4263    -11.-1.35538+       
+         100001  100002
SPOINT    100003                        
CBEAM       3890       2      56      57      0.      1.      0.        +       
+                        12.4263    -11.-1.35538 12.4263    -11.-1.35538+       
+         100002  100003
SPOINT    100004                        
CBEAM       3891       2      57      58      0.      1.      0.        +       
+                        12.4263    -11.-1.35538 12.4263    -11.-1.35538+       
+         100003  100004
SPOINT    100005                        
CBEAM       3892       2      58      59      0.      1.      0.        +       
+                        12.4263    -11.-1.35538 12.4263    -11.-1.35538+       
+         100004  100005
SPOINT    100006                        
CBEAM       3893       2      59      60      0.      1.      0.        +       
+                        12.4263    -11.-1.35538 12.4263    -11.-1.35538+       
+         100005  100006
SPOINT    100007                        
CBEAM       3894       2      60      61      0.      1.      0.        +       
+                        12.4263    -11.-1.35538 12.4263    -11.-1.35538+       
+         100006  100007
SPOINT    100008                        
CBEAM       3895       2      61      62      0.      1.      0.        +       
+                        12.4263    -11.-1.35538 12.4263    -11.-1.35538+       
+         100007  100008
SPOINT    100009                        
CBEAM       3896       2      62      63      0.      1.      0.        +       
+                        12.4263    -11.-1.35538 12.4263    -11.-1.35538+       
+         100008  100009
SPOINT    100010                        
CBEAM       3897       2      63      64      0.      1.      0.        +       
+                        12.4263    -11.-1.35538 12.4263    -11.-1.35538+       
+         100009  100010
SPOINT    100011                        
CBEAM       3898       2      64      65      0.      1.      0.        +       
+                        12.4263    -11.-1.35538 12.4263    -11.-1.35538+       
+         100010  100011
SPOINT    100012                        
CBEAM       3899       2      65      66      0.      1.      0.        +       
+                        12.4263    -11.-1.35538 12.4263    -11.-1.35538+       
+         100011  100012
SPOINT    100013                        
CBEAM       3900       2      66      67      0.      1.      0.        +       
+                        12.4263    -11.-1.35538 12.4263    -11.-1.35538+       
+         100012  100013
SPOINT    100014                        
CBEAM       3901       2      67      68      0.      1.      0.        +       
+                        12.4263    -11.-1.35538 12.4263    -11.-1.35538+       
+         100013  100014
SPOINT    100015                        
CBEAM       3902       2      68      69      0.      1.      0.        +       
+                        12.4263    -11.-1.35538 12.4263    -11.-1.35538+       
+         100014  100015
SPOINT    100016                        
CBEAM       3903       2      69      70      0.      1.      0.        +       
+                        12.4263    -11.-1.35538 12.4263    -11.-1.35538+       
+         100015  100016
SPOINT    100017                        
CBEAM       3904       2      70      71      0.      1.      0.        +       
+                        12.4263    -11.-1.35538 12.4263    -11.-1.35538+       
+         100016  100017
SPOINT    100018                        
CBEAM       3905       2      71      72      0.      1.      0.        +       
+                        12.4263    -11.-1.35538 12.4263    -11.-1.35538+       
+         100017  100018
SPOINT    100019                        
CBEAM       3906       2      72      73      0.      1.      0.        +       
+                        12.4263    -11.-1.35538 12.4263    -11.-1.35538+       
+         100018  100019
SPOINT    100020                        
CBEAM       3907       2      73      74      0.      1.      0.        +       
+                        12.4263    -11.-1.35538 12.4263    -11.-1.35538+       
+         100019  100020
SPOINT    100021                        
CBEAM       3908       2      74      75      0.      1.      0.        +       
+                        12.4263    -11.-1.35538 12.4263    -11.-1.35538+       
+         100020  100021
SPOINT    100022                        
CBEAM       3909       2      75      76      0.      1.      0.        +       
+                        12.4263    -11.-1.35538 12.4263    -11.-1.35538+       
+         100021  100022
SPOINT    100023                        
CBEAM       3910       2      76      77      0.      1.      0.        +       
+                        12.4263    -11.-1.35538 12.4263    -11.-1.35538+       
+         100022  100023
SPOINT    100024                        
CBEAM       3911       2      77      78      0.      1.      0.        +       
+                        12.4263    -11.-1.35538 12.4263    -11.-1.35538+       
+         100023  100024
SPOINT    100025                        
CBEAM       3912       2      78      79      0.      1.      0.        +       
+                        12.4263    -11.-1.35538 12.4263    -11.-1.35538+       
+         100024  100025
SPOINT    100026                        
CBEAM       3913       2      79      80      0.      1.      0.        +       
+                        12.4263    -11.-1.35538 12.4263    -11.-1.35538+       
+         100025  100026
SPOINT    100027                        
CBEAM       3914       2      80      81      0.      1.      0.        +       
+                        12.4263    -11.-1.35538 12.4263    -11.-1.35538+       
+         100026  100027
SPOINT    100028                        
CBEAM       3915       2      81      82      0.      1.      0.        +       
+                        12.4263    -11.-1.35538 12.4263    -11.-1.35538+       
+         100027  100028
SPOINT    100029                        
CBEAM       3916       2      82      83      0.      1.      0.        +       
+                        12.4263    -11.-1.35538 12.4263    -11.-1.35538+       
+         100028  100029
SPOINT    100030                        
CBEAM       3917       2      83      84      0.      1.      0.        +       
+                        12.4263    -11.-1.35538 12.4263    -11.-1.35538+       
+         100029  100030
SPOINT    100031                        
CBEAM       3918       2      84      85      0.      1.      0.        +       
+                        12.4263    -11.-1.35538 12.4263    -11.-1.35538+       
+         100030  100031
SPOINT    100032                        
CBEAM       3919       2      85      86      0.      1.      0.        +       
+                        12.4263    -11.-1.35538 12.4263    -11.-1.35538+       
+         100031  100032
SPOINT    100033                        
CBEAM       3920       2      86      87      0.      1.      0.        +       
+                        12.4263    -11.-1.35538 12.4263    -11.-1.35538+       
+         100032  100033
SPOINT    100034                        
CBEAM       3921       2      87      88      0.      1.      0.        +       
+                        12.4263    -11.-1.35538 12.4263    -11.-1.35538+       
+         100033  100034
SPOINT    100035                        
CBEAM       3922       2      88      89      0.      1.      0.        +       
+                        12.4263    -11.-1.35538 12.4263    -11.-1.35538+       
+         100034  100035
SPOINT    100036                        
CBEAM       3923       2      89      90      0.      1.      0.        +       
+                        12.4263    -11.-1.35538 12.4263    -11.-1.35538+       
+         100035  100036
SPOINT    100037                        
CBEAM       3924       2      90      91      0.      1.      0.        +       
+                        12.4263    -11.-1.35538 12.4263    -11.-1.35538+       
+         100036  100037
SPOINT    100038                        
SPOINT    100039                        
CBEAM       3925       2      43     222-.642788.7660444      0.        +       
+                       16.58976-.439017-1.3553816.58976-.439017-1.35538+       
+         100038  100039
SPOINT    100040                        
CBEAM       3926       2     222     275-.642788.7660444      0.        +       
+                       16.58976-.439017-1.3553816.58976-.439017-1.35538+       
+         100039  100040
SPOINT    100041                        
CBEAM       3927       2     275     328-.642788.7660444      0.        +       
+                       16.58976-.439017-1.3553816.58976-.439017-1.35538+       
+         100040  100041
SPOINT    100042                        
CBEAM       3928       2     328     381-.642788.7660444      0.        +       
+                       16.58976-.439017-1.3553816.58976-.439017-1.35538+       
+         100041  100042
SPOINT    100043                        
CBEAM       3929       2     381     434-.642788.7660444      0.        +       
+                       16.58976-.439017-1.3553816.58976-.439017-1.35538+       
+         100042  100043
SPOINT    100044                        
CBEAM       3930       2     434     487-.642788.7660444      0.        +       
+                       16.58976-.439017-1.3553816.58976-.439017-1.35538+       
+         100043  100044
SPOINT    100045                        
CBEAM       3931       2     487     540-.642788.7660444      0.        +       
+                       16.58976-.439017-1.3553816.58976-.439017-1.35538+       
+         100044  100045
SPOINT    100046                        
CBEAM       3932       2     540     593-.642788.7660444      0.        +       
+                       16.58976-.439017-1.3553816.58976-.439017-1.35538+       
+         100045  100046
SPOINT    100047                        
CBEAM       3933       2     593     646-.642788.7660444      0.        +       
+                       16.58976-.439017-1.3553816.58976-.439017-1.35538+       
+         100046  100047
SPOINT    100048                        
CBEAM       3934       2     646     699-.642788.7660444      0.        +       
+                       16.58976-.439017-1.3553816.58976-.439017-1.35538+       
+         100047  100048
SPOINT    100049                        
CBEAM       3935       2     699     752-.642788.7660444      0.        +       
+                       16.58976-.439017-1.3553816.58976-.439017-1.35538+       
+         100048  100049
SPOINT    100050                        
CBEAM       3936       2     752     805-.642788.7660444      0.        +       
+                       16.58976-.439017-1.3553816.58976-.439017-1.35538+       
+         100049  100050
SPOINT    100051                        
CBEAM       3937       2     805     858-.642788.7660444      0.        +       
+                       16.58976-.439017-1.3553816.58976-.439017-1.35538+       
+         100050  100051
SPOINT    100052                        
CBEAM       3938       2     858     911-.642788.7660444      0.        +       
+                       16.58976-.439017-1.3553816.58976-.439017-1.35538+       
+         100051  100052
SPOINT    100053                        
CBEAM       3939       2     911     964-.642788.7660444      0.        +       
+                       16.58976-.439017-1.3553816.58976-.439017-1.35538+       
+         100052  100053
SPOINT    100054                        
CBEAM       3940       2     964    1017-.642788.7660444      0.        +       
+                       16.58976-.439017-1.3553816.58976-.439017-1.35538+       
+         100053  100054
SPOINT    100055                        
CBEAM       3941       2    1017    1070-.642788.7660444      0.        +       
+                       16.58976-.439017-1.3553816.58976-.439017-1.35538+       
+         100054  100055
SPOINT    100056                        
CBEAM       3942       2    1070    1123-.642788.7660444      0.        +       
+                       16.58976-.439017-1.3553816.58976-.439017-1.35538+       
+         100055  100056
SPOINT    100057                        
CBEAM       3943       2    1123    1176-.642788.7660444      0.        +       
+                       16.58976-.439017-1.3553816.58976-.439017-1.35538+       
+         100056  100057
SPOINT    100058                        
CBEAM       3944       2    1176    1229-.642788.7660444      0.        +       
+                       16.58976-.439017-1.3553816.58976-.439017-1.35538+       
+         100057  100058
SPOINT    100059                        
CBEAM       3945       2    1229    1282-.642788.7660444      0.        +       
+                       16.58976-.439017-1.3553816.58976-.439017-1.35538+       
+         100058  100059
SPOINT    100060                        
CBEAM       3946       2    1282    1335-.642788.7660444      0.        +       
+                       16.58976-.439017-1.3553816.58976-.439017-1.35538+       
+         100059  100060
SPOINT    100061                        
CBEAM       3947       2    1335    1388-.642788.7660444      0.        +       
+                       16.58976-.439017-1.3553816.58976-.439017-1.35538+       
+         100060  100061
SPOINT    100062                        
CBEAM       3948       2    1388    1441-.642788.7660444      0.        +       
+                       16.58976-.439017-1.3553816.58976-.439017-1.35538+       
+         100061  100062
SPOINT    100063                        
CBEAM       3949       2    1441    1494-.642788.7660444      0.        +       
+                       16.58976-.439017-1.3553816.58976-.439017-1.35538+       
+         100062  100063
SPOINT    100064                        
CBEAM       3950       2    1494    1547-.642788.7660444      0.        +       
+                       16.58976-.439017-1.3553816.58976-.439017-1.35538+       
+         100063  100064
SPOINT    100065                        
CBEAM       3951       2    1547    1600-.642788.7660444      0.        +       
+                       16.58976-.439017-1.3553816.58976-.439017-1.35538+       
+         100064  100065
SPOINT    100066                        
CBEAM       3952       2    1600    1653-.642788.7660444      0.        +       
+                       16.58976-.439017-1.3553816.58976-.439017-1.35538+       
+         100065  100066
SPOINT    100067                        
CBEAM       3953       2    1653    1706-.642788.7660444      0.        +       
+                       16.58976-.439017-1.3553816.58976-.439017-1.35538+       
+         100066  100067
SPOINT    100068                        
CBEAM       3954       2    1706    1759-.642788.7660444      0.        +       
+                       16.58976-.439017-1.3553816.58976-.439017-1.35538+       
+         100067  100068
SPOINT    100069                        
CBEAM       3955       2    1759    1812-.642788.7660444      0.        +       
+                       16.58976-.439017-1.3553816.58976-.439017-1.35538+       
+         100068  100069
SPOINT    100070                        
CBEAM       3956       2    1812    1865-.642788.7660444      0.        +       
+                       16.58976-.439017-1.3553816.58976-.439017-1.35538+       
+         100069  100070
SPOINT    100071                        
CBEAM       3957       2    1865    1918-.642788.7660444      0.        +       
+                       16.58976-.439017-1.3553816.58976-.439017-1.35538+       
+         100070  100071
SPOINT    100072                        
CBEAM       3958       2    1918    1971-.642788.7660444      0.        +       
+                       16.58976-.439017-1.3553816.58976-.439017-1.35538+       
+         100071  100072
SPOINT    100073                        
CBEAM       3959       2    1971    2024-.642788.7660444      0.        +       
+                       16.58976-.439017-1.3553816.58976-.439017-1.35538+       
+         100072  100073
SPOINT    100074                        
CBEAM       3960       2    2024     103-.642788.7660444      0.        +       
+                       16.58976-.439017-1.3553816.58976-.439017-1.35538+       
+         100073  100074
SPOINT    100075                        
SPOINT    100076                        
CBEAM       3961       2      31     210-.984808.1736482      0.        +       
+                       12.9906910.32739-1.3553812.9906910.32739-1.35538+       
+         100075  100076
SPOINT    100077                        
CBEAM       3962       2     210     263-.984808.1736482      0.        +       
+                       12.9906910.32739-1.3553812.9906910.32739-1.35538+       
+         100076  100077
SPOINT    100078                        
CBEAM       3963       2     263     316-.984808.1736482      0.        +       
+                       12.9906910.32739-1.3553812.9906910.32739-1.35538+       
+         100077  100078
SPOINT    100079                        
CBEAM       3964       2     316     369-.984808.1736482      0.        +       
+                       12.9906910.32739-1.3553812.9906910.32739-1.35538+       
+         100078  100079
SPOINT    100080                        
CBEAM       3965       2     369     422-.984808.1736482      0.        +       
+                       12.9906910.32739-1.3553812.9906910.32739-1.35538+       
+         100079  100080
SPOINT    100081                        
CBEAM       3966       2     422     475-.984808.1736482      0.        +       
+                       12.9906910.32739-1.3553812.9906910.32739-1.35538+       
+         100080  100081
SPOINT    100082                        
CBEAM       3967       2     475     528-.984808.1736482      0.        +       
+                       12.9906910.32739-1.3553812.9906910.32739-1.35538+       
+         100081  100082
SPOINT    100083                        
CBEAM       3968       2     528     581-.984808.1736482      0.        +       
+                       12.9906910.32739-1.3553812.9906910.32739-1.35538+       
+         100082  100083
SPOINT    100084                        
CBEAM       3969       2     581     634-.984808.1736482      0.        +       
+                       12.9906910.32739-1.3553812.9906910.32739-1.35538+       
+         100083  100084
SPOINT    100085                        
CBEAM       3970       2     634     687-.984808.1736482      0.        +       
+                       12.9906910.32739-1.3553812.9906910.32739-1.35538+       
+         100084  100085
SPOINT    100086                        
CBEAM       3971       2     687     740-.984808.1736482      0.        +       
+                       12.9906910.32739-1.3553812.9906910.32739-1.35538+       
+         100085  100086
SPOINT    100087                        
CBEAM       3972       2     740     793-.984808.1736482      0.        +       
+                       12.9906910.32739-1.3553812.9906910.32739-1.35538+       
+         100086  100087
SPOINT    100088                        
CBEAM       3973       2     793     846-.984808.1736482      0.        +       
+                       12.9906910.32739-1.3553812.9906910.32739-1.35538+       
+         100087  100088
SPOINT    100089                        
CBEAM       3974       2     846     899-.984808.1736482      0.        +       
+                       12.9906910.32739-1.3553812.9906910.32739-1.35538+       
+         100088  100089
SPOINT    100090                        
CBEAM       3975       2     899     952-.984808.1736482      0.        +       
+                       12.9906910.32739-1.3553812.9906910.32739-1.35538+       
+         100089  100090
SPOINT    100091                        
CBEAM       3976       2     952    1005-.984808.1736482      0.        +       
+                       12.9906910.32739-1.3553812.9906910.32739-1.35538+       
+         100090  100091
SPOINT    100092                        
CBEAM       3977       2    1005    1058-.984808.1736482      0.        +       
+                       12.9906910.32739-1.3553812.9906910.32739-1.35538+       
+         100091  100092
SPOINT    100093                        
CBEAM       3978       2    1058    1111-.984808.1736482      0.        +       
+                       12.9906910.32739-1.3553812.9906910.32739-1.35538+       
+         100092  100093
SPOINT    100094                        
CBEAM       3979       2    1111    1164-.984808.1736482      0.        +       
+                       12.9906910.32739-1.3553812.9906910.32739-1.35538+       
+         100093  100094
SPOINT    100095                        
CBEAM       3980       2    1164    1217-.984808.1736482      0.        +       
+                       12.9906910.32739-1.3553812.9906910.32739-1.35538+       
+         100094  100095
SPOINT    100096                        
CBEAM       3981       2    1217    1270-.984808.1736482      0.        +       
+                       12.9906910.32739-1.3553812.9906910.32739-1.35538+       
+         100095  100096
SPOINT    100097                        
CBEAM       3982       2    1270    1323-.984808.1736482      0.        +       
+                       12.9906910.32739-1.3553812.9906910.32739-1.35538+       
+         100096  100097
SPOINT    100098                        
CBEAM       3983       2    1323    1376-.984808.1736482      0.        +       
+                       12.9906910.32739-1.3553812.9906910.32739-1.35538+       
+         100097  100098
SPOINT    100099                        
CBEAM       3984       2    1376    1429-.984808.1736482      0.        +       
+                       12.9906910.32739-1.3553812.9906910.32739-1.35538+       
+         100098  100099
SPOINT    100100                        
CBEAM       3985       2    1429    1482-.984808.1736482      0.        +       
+                       12.9906910.32739-1.3553812.9906910.32739-1.35538+       
+         100099  100100
SPOINT    100101                        
CBEAM       3986       2    1482    1535-.984808.1736482      0.        +       
+                       12.9906910.32739-1.3553812.9906910.32739-1.35538+       
+         100100  100101
SPOINT    100102                        
CBEAM       3987       2    1535    1588-.984808.1736482      0.        +       
+                       12.9906910.32739-1.3553812.9906910.32739-1.35538+       
+         100101  100102
SPOINT    100103                        
CBEAM       3988       2    1588    1641-.984808.1736482      0.        +       
+                       12.9906910.32739-1.3553812.9906910.32739-1.35538+       
+         100102  100103
SPOINT    100104                        
CBEAM       3989       2    1641    1694-.984808.1736482      0.        +       
+                       12.9906910.32739-1.3553812.9906910.32739-1.35538+       
+         100103  100104
SPOINT    100105                        
CBEAM       3990       2    1694    1747-.984808.1736482      0.        +       
+                       12.9906910.32739-1.3553812.9906910.32739-1.35538+       
+         100104  100105
SPOINT    100106                        
CBEAM       3991       2    1747    1800-.984808.1736482      0.        +       
+                       12.9906910.32739-1.3553812.9906910.32739-1.35538+       
+         100105  100106
SPOINT    100107                        
CBEAM       3992       2    1800    1853-.984808.1736482      0.        +       
+                       12.9906910.32739-1.3553812.9906910.32739-1.35538+       
+         100106  100107
SPOINT    100108                        
CBEAM       3993       2    1853    1906-.984808.1736482      0.        +       
+                       12.9906910.32739-1.3553812.9906910.32739-1.35538+       
+         100107  100108
SPOINT    100109                        
CBEAM       3994       2    1906    1959-.984808.1736482      0.        +       
+                       12.9906910.32739-1.3553812.9906910.32739-1.35538+       
+         100108  100109
SPOINT    100110                        
CBEAM       3995       2    1959    2012-.984808.1736482      0.        +       
+                       12.9906910.32739-1.3553812.9906910.32739-1.35538+       
+         100109  100110
SPOINT    100111                        
CBEAM       3996       2    2012     115-.984808.1736482      0.        +       
+                       12.9906910.32739-1.3553812.9906910.32739-1.35538+       
+         100110  100111
SPOINT    100112                        
SPOINT    100113                        
CBEAM       3997       2      19     198-.866025     -.5      0.        +       
+                       3.31312916.26149-1.355383.31312916.26149-1.35538+       
+         100112  100113
SPOINT    100114                        
CBEAM       3998       2     198     251-.866025     -.5      0.        +       
+                       3.31312916.26149-1.355383.31312916.26149-1.35538+       
+         100113  100114
SPOINT    100115                        
CBEAM       3999       2     251     304-.866025     -.5      0.        +       
+                       3.31312916.26149-1.355383.31312916.26149-1.35538+       
+         100114  100115
SPOINT    100116                        
CBEAM       4000       2     304     357-.866025     -.5      0.        +       
+                       3.31312916.26149-1.355383.31312916.26149-1.35538+       
+         100115  100116
SPOINT    100117                        
CBEAM       4001       2     357     410-.866025     -.5      0.        +       
+                       3.31312916.26149-1.355383.31312916.26149-1.35538+       
+         100116  100117
SPOINT    100118                        
CBEAM       4002       2     410     463-.866025     -.5      0.        +       
+                       3.31312916.26149-1.355383.31312916.26149-1.35538+       
+         100117  100118
SPOINT    100119                        
CBEAM       4003       2     463     516-.866025     -.5      0.        +       
+                       3.31312916.26149-1.355383.31312916.26149-1.35538+       
+         100118  100119
SPOINT    100120                        
CBEAM       4004       2     516     569-.866025     -.5      0.        +       
+                       3.31312916.26149-1.355383.31312916.26149-1.35538+       
+         100119  100120
SPOINT    100121                        
CBEAM       4005       2     569     622-.866025     -.5      0.        +       
+                       3.31312916.26149-1.355383.31312916.26149-1.35538+       
+         100120  100121
SPOINT    100122                        
CBEAM       4006       2     622     675-.866025     -.5      0.        +       
+                       3.31312916.26149-1.355383.31312916.26149-1.35538+       
+         100121  100122
SPOINT    100123                        
CBEAM       4007       2     675     728-.866025     -.5      0.        +       
+                       3.31312916.26149-1.355383.31312916.26149-1.35538+       
+         100122  100123
SPOINT    100124                        
CBEAM       4008       2     728     781-.866025     -.5      0.        +       
+                       3.31312916.26149-1.355383.31312916.26149-1.35538+       
+         100123  100124
SPOINT    100125                        
CBEAM       4009       2     781     834-.866025     -.5      0.        +       
+                       3.31312916.26149-1.355383.31312916.26149-1.35538+       
+         100124  100125
SPOINT    100126                        
CBEAM       4010       2     834     887-.866025     -.5      0.        +       
+                       3.31312916.26149-1.355383.31312916.26149-1.35538+       
+         100125  100126
SPOINT    100127                        
CBEAM       4011       2     887     940-.866025     -.5      0.        +       
+                       3.31312916.26149-1.355383.31312916.26149-1.35538+       
+         100126  100127
SPOINT    100128                        
CBEAM       4012       2     940     993-.866025     -.5      0.        +       
+                       3.31312916.26149-1.355383.31312916.26149-1.35538+       
+         100127  100128
SPOINT    100129                        
CBEAM       4013       2     993    1046-.866025     -.5      0.        +       
+                       3.31312916.26149-1.355383.31312916.26149-1.35538+       
+         100128  100129
SPOINT    100130                        
CBEAM       4014       2    1046    1099-.866025     -.5      0.        +       
+                       3.31312916.26149-1.355383.31312916.26149-1.35538+       
+         100129  100130
SPOINT    100131                        
CBEAM       4015       2    1099    1152-.866025     -.5      0.        +       
+                       3.31312916.26149-1.355383.31312916.26149-1.35538+       
+         100130  100131
SPOINT    100132                        
CBEAM       4016       2    1152    1205-.866025     -.5      0.        +       
+                       3.31312916.26149-1.355383.31312916.26149-1.35538+       
+         100131  100132
SPOINT    100133                        
CBEAM       4017       2    1205    1258-.866025     -.5      0.        +       
+                       3.31312916.26149-1.355383.31312916.26149-1.35538+       
+         100132  100133
SPOINT    100134                        
CBEAM       4018       2    1258    1311-.866025     -.5      0.        +       
+                       3.31312916.26149-1.355383.31312916.26149-1.35538+       
+         100133  100134
SPOINT    100135                        
CBEAM       4019       2    1311    1364-.866025     -.5      0.        +       
+                       3.31312916.26149-1.355383.31312916.26149-1.35538+       
+         100134  100135
SPOINT    100136                        
CBEAM       4020       2    1364    1417-.866025     -.5      0.        +       
+                       3.31312916.26149-1.355383.31312916.26149-1.35538+       
+         100135  100136
SPOINT    100137                        
CBEAM       4021       2    1417    1470-.866025     -.5      0.        +       
+                       3.31312916.26149-1.355383.31312916.26149-1.35538+       
+         100136  100137
SPOINT    100138                        
CBEAM       4022       2    1470    1523-.866025     -.5      0.        +       
+                       3.31312916.26149-1.355383.31312916.26149-1.35538+       
+         100137  100138
SPOINT    100139                        
CBEAM       4023       2    1523    1576-.866025     -.5      0.        +       
+                       3.31312916.26149-1.355383.31312916.26149-1.35538+       
+         100138  100139
SPOINT    100140                        
CBEAM       4024       2    1576    1629-.866025     -.5      0.        +       
+                       3.31312916.26149-1.355383.31312916.26149-1.35538+       
+         100139  100140
SPOINT    100141                        
CBEAM       4025       2    1629    1682-.866025     -.5      0.        +       
+                       3.31312916.26149-1.355383.31312916.26149-1.35538+       
+         100140  100141
SPOINT    100142                        
CBEAM       4026       2    1682    1735-.866025     -.5      0.        +       
+                       3.31312916.26149-1.355383.31312916.26149-1.35538+       
+         100141  100142
SPOINT    100143                        
CBEAM       4027       2    1735    1788-.866025     -.5      0.        +       
+                       3.31312916.26149-1.355383.31312916.26149-1.35538+       
+         100142  100143
SPOINT    100144                        
CBEAM       4028       2    1788    1841-.866025     -.5      0.        +       
+                       3.31312916.26149-1.355383.31312916.26149-1.35538+       
+         100143  100144
SPOINT    100145                        
CBEAM       4029       2    1841    1894-.866025     -.5      0.        +       
+                       3.31312916.26149-1.355383.31312916.26149-1.35538+       
+         100144  100145
SPOINT    100146                        
CBEAM       4030       2    1894    1947-.866025     -.5      0.        +       
+                       3.31312916.26149-1.355383.31312916.26149-1.35538+       
+         100145  100146
SPOINT    100147                        
CBEAM       4031       2    1947    2000-.866025     -.5      0.        +       
+                       3.31312916.26149-1.355383.31312916.26149-1.35538+       
+         100146  100147
SPOINT    100148                        
CBEAM       4032       2    2000     127-.866025     -.5      0.        +       
+                       3.31312916.26149-1.355383.31312916.26149-1.35538+       
+         100147  100148
SPOINT    100149                        
SPOINT    100150                        
CBEAM       4033       2       7     186 -.34202-.939693      0.        +       
+                       -7.9146814.58666-1.35538-7.9146814.58666-1.35538+       
+         100149  100150
SPOINT    100151                        
CBEAM       4034       2     186     239 -.34202-.939693      0.        +       
+                       -7.9146814.58666-1.35538-7.9146814.58666-1.35538+       
+         100150  100151
SPOINT    100152                        
CBEAM       4035       2     239     292 -.34202-.939693      0.        +       
+                       -7.9146814.58666-1.35538-7.9146814.58666-1.35538+       
+         100151  100152
SPOINT    100153                        
CBEAM       4036       2     292     345 -.34202-.939693      0.        +       
+                       -7.9146814.58666-1.35538-7.9146814.58666-1.35538+       
+         100152  100153
SPOINT    100154                        
CBEAM       4037       2     345     398 -.34202-.939693      0.        +       
+                       -7.9146814.58666-1.35538-7.9146814.58666-1.35538+       
+         100153  100154
SPOINT    100155                        
CBEAM       4038       2     398     451 -.34202-.939693      0.        +       
+                       -7.9146814.58666-1.35538-7.9146814.58666-1.35538+       
+         100154  100155
SPOINT    100156                        
CBEAM       4039       2     451     504 -.34202-.939693      0.        +       
+                       -7.9146814.58666-1.35538-7.9146814.58666-1.35538+       
+         100155  100156
SPOINT    100157                        
CBEAM       4040       2     504     557 -.34202-.939693      0.        +       
+                       -7.9146814.58666-1.35538-7.9146814.58666-1.35538+       
+         100156  100157
SPOINT    100158                        
CBEAM       4041       2     557     610 -.34202-.939693      0.        +       
+                       -7.9146814.58666-1.35538-7.9146814.58666-1.35538+       
+         100157  100158
SPOINT    100159                        
CBEAM       4042       2     610     663 -.34202-.939693      0.        +       
+                       -7.9146814.58666-1.35538-7.9146814.58666-1.35538+       
+         100158  100159
SPOINT    100160                        
CBEAM       4043       2     663     716 -.34202-.939693      0.        +       
+                       -7.9146814.58666-1.35538-7.9146814.58666-1.35538+       
+         100159  100160
SPOINT    100161                        
CBEAM       4044       2     716     769 -.34202-.939693      0.        +       
+                       -7.9146814.58666-1.35538-7.9146814.58666-1.35538+       
+         100160  100161
SPOINT    100162                        
CBEAM       4045       2     769     822 -.34202-.939693      0.        +       
+                       -7.9146814.58666-1.35538-7.9146814.58666-1.35538+       
+         100161  100162
SPOINT    100163                        
CBEAM       4046       2     822     875 -.34202-.939693      0.        +       
+                       -7.9146814.58666-1.35538-7.9146814.58666-1.35538+       
+         100162  100163
SPOINT    100164                        
CBEAM       4047       2     875     928 -.34202-.939693      0.        +       
+                       -7.9146814.58666-1.35538-7.9146814.58666-1.35538+       
+         100163  100164
SPOINT    100165                        
CBEAM       4048       2     928     981 -.34202-.939693      0.        +       
+                       -7.9146814.58666-1.35538-7.9146814.58666-1.35538+       
+         100164  100165
SPOINT    100166                        
CBEAM       4049       2     981    1034 -.34202-.939693      0.        +       
+                       -7.9146814.58666-1.35538-7.9146814.58666-1.35538+       
+         100165  100166
SPOINT    100167                        
CBEAM       4050       2    1034    1087 -.34202-.939693      0.        +       
+                       -7.9146814.58666-1.35538-7.9146814.58666-1.35538+       
+         100166  100167
SPOINT    100168                        
CBEAM       4051       2    1087    1140 -.34202-.939693      0.        +       
+                       -7.9146814.58666-1.35538-7.9146814.58666-1.35538+       
+         100167  100168
SPOINT    100169                        
CBEAM       4052       2    1140    1193 -.34202-.939693      0.        +       
+                       -7.9146814.58666-1.35538-7.9146814.58666-1.35538+       
+         100168  100169
SPOINT    100170                        
CBEAM       4053       2    1193    1246 -.34202-.939693      0.        +       
+                       -7.9146814.58666-1.35538-7.9146814.58666-1.35538+       
+         100169  100170
SPOINT    100171                        
CBEAM       4054       2    1246    1299 -.34202-.939693      0.        +       
+                       -7.9146814.58666-1.35538-7.9146814.58666-1.35538+       
+         100170  100171
SPOINT    100172                        
CBEAM       4055       2    1299    1352 -.34202-.939693      0.        +       
+                       -7.9146814.58666-1.35538-7.9146814.58666-1.35538+       
+         100171  100172
SPOINT    100173                        
CBEAM       4056       2    1352    1405 -.34202-.939693      0.        +       
+                       -7.9146814.58666-1.35538-7.9146814.58666-1.35538+       
+         100172  100173
SPOINT    100174                        
CBEAM       4057       2    1405    1458 -.34202-.939693      0.        +       
+                       -7.9146814.58666-1.35538-7.9146814.58666-1.35538+       
+         100173  100174
SPOINT    100175                        
CBEAM       4058       2    1458    1511 -.34202-.939693      0.        +       
+                       -7.9146814.58666-1.35538-7.9146814.58666-1.35538+       
+         100174  100175
SPOINT    100176                        
CBEAM       4059       2    1511    1564 -.34202-.939693      0.        +       
+                       -7.9146814.58666-1.35538-7.9146814.58666-1.35538+       
+         100175  100176
SPOINT    100177                        
CBEAM       4060       2    1564    1617 -.34202-.939693      0.        +       
+                       -7.9146814.58666-1.35538-7.9146814.58666-1.35538+       
+         100176  100177
SPOINT    100178                        
CBEAM       4061       2    1617    1670 -.34202-.939693      0.        +       
+                       -7.9146814.58666-1.35538-7.9146814.58666-1.35538+       
+         100177  100178
SPOINT    100179                        
CBEAM       4062       2    1670    1723 -.34202-.939693      0.        +       
+                       -7.9146814.58666-1.35538-7.9146814.58666-1.35538+       
+         100178  100179
SPOINT    100180                        
CBEAM       4063       2    1723    1776 -.34202-.939693      0.        +       
+                       -7.9146814.58666-1.35538-7.9146814.58666-1.35538+       
+         100179  100180
SPOINT    100181                        
CBEAM       4064       2    1776    1829 -.34202-.939693      0.        +       
+                       -7.9146814.58666-1.35538-7.9146814.58666-1.35538+       
+         100180  100181
SPOINT    100182                        
CBEAM       4065       2    1829    1882 -.34202-.939693      0.        +       
+                       -7.9146814.58666-1.35538-7.9146814.58666-1.35538+       
+         100181  100182
SPOINT    100183                        
CBEAM       4066       2    1882    1935 -.34202-.939693      0.        +       
+                       -7.9146814.58666-1.35538-7.9146814.58666-1.35538+       
+         100182  100183
SPOINT    100184                        
CBEAM       4067       2    1935    1988 -.34202-.939693      0.        +       
+                       -7.9146814.58666-1.35538-7.9146814.58666-1.35538+       
+         100183  100184
SPOINT    100185                        
CBEAM       4068       2    1988     139 -.34202-.939693      0.        +       
+                       -7.9146814.58666-1.35538-7.9146814.58666-1.35538+       
+         100184  100185
SPOINT    100186                        
SPOINT    100187                        
CBEAM       4069       2    2120    4023.3420201-.939693      0.        +       
+                       -15.43916.086574-1.35538-15.43916.086574-1.35538+       
+         100186  100187
SPOINT    100188                        
CBEAM       4070       2    4023    3970.3420201-.939693      0.        +       
+                       -15.43916.086574-1.35538-15.43916.086574-1.35538+       
+         100187  100188
SPOINT    100189                        
CBEAM       4071       2    3970    3917.3420201-.939693      0.        +       
+                       -15.43916.086574-1.35538-15.43916.086574-1.35538+       
+         100188  100189
SPOINT    100190                        
CBEAM       4072       2    3917    3864.3420201-.939693      0.        +       
+                       -15.43916.086574-1.35538-15.43916.086574-1.35538+       
+         100189  100190
SPOINT    100191                        
CBEAM       4073       2    3864    3811.3420201-.939693      0.        +       
+                       -15.43916.086574-1.35538-15.43916.086574-1.35538+       
+         100190  100191
SPOINT    100192                        
CBEAM       4074       2    3811    3758.3420201-.939693      0.        +       
+                       -15.43916.086574-1.35538-15.43916.086574-1.35538+       
+         100191  100192
SPOINT    100193                        
CBEAM       4075       2    3758    3705.3420201-.939693      0.        +       
+                       -15.43916.086574-1.35538-15.43916.086574-1.35538+       
+         100192  100193
SPOINT    100194                        
CBEAM       4076       2    3705    3652.3420201-.939693      0.        +       
+                       -15.43916.086574-1.35538-15.43916.086574-1.35538+       
+         100193  100194
SPOINT    100195                        
CBEAM       4077       2    3652    3599.3420201-.939693      0.        +       
+                       -15.43916.086574-1.35538-15.43916.086574-1.35538+       
+         100194  100195
SPOINT    100196                        
CBEAM       4078       2    3599    3546.3420201-.939693      0.        +       
+                       -15.43916.086574-1.35538-15.43916.086574-1.35538+       
+         100195  100196
SPOINT    100197                        
CBEAM       4079       2    3546    3493.3420201-.939693      0.        +       
+                       -15.43916.086574-1.35538-15.43916.086574-1.35538+       
+         100196  100197
SPOINT    100198                        
CBEAM       4080       2    3493    3440.3420201-.939693      0.        +       
+                       -15.43916.086574-1.35538-15.43916.086574-1.35538+       
+         100197  100198
SPOINT    100199                        
CBEAM       4081       2    3440    3387.3420201-.939693      0.        +       
+                       -15.43916.086574-1.35538-15.43916.086574-1.35538+       
+         100198  100199
SPOINT    100200                        
CBEAM       4082       2    3387    3334.3420201-.939693      0.        +       
+                       -15.43916.086574-1.35538-15.43916.086574-1.35538+       
+         100199  100200
SPOINT    100201                        
CBEAM       4083       2    3334    3281.3420201-.939693      0.        +       
+                       -15.43916.086574-1.35538-15.43916.086574-1.35538+       
+         100200  100201
SPOINT    100202                        
CBEAM       4084       2    3281    3228.3420201-.939693      0.        +       
+                       -15.43916.086574-1.35538-15.43916.086574-1.35538+       
+         100201  100202
SPOINT    100203                        
CBEAM       4085       2    3228    3175.3420201-.939693      0.        +       
+                       -15.43916.086574-1.35538-15.43916.086574-1.35538+       
+         100202  100203
SPOINT    100204                        
CBEAM       4086       2    3175    3122.3420201-.939693      0.        +       
+                       -15.43916.086574-1.35538-15.43916.086574-1.35538+       
+         100203  100204
SPOINT    100205                        
CBEAM       4087       2    3122    3069.3420201-.939693      0.        +       
+                       -15.43916.086574-1.35538-15.43916.086574-1.35538+       
+         100204  100205
SPOINT    100206                        
CBEAM       4088       2    3069    3016.3420201-.939693      0.        +       
+                       -15.43916.086574-1.35538-15.43916.086574-1.35538+       
+         100205  100206
SPOINT    100207                        
CBEAM       4089       2    3016    2963.3420201-.939693      0.        +       
+                       -15.43916.086574-1.35538-15.43916.086574-1.35538+       
+         100206  100207
SPOINT    100208                        
CBEAM       4090       2    2963    2910.3420201-.939693      0.        +       
+                       -15.43916.086574-1.35538-15.43916.086574-1.35538+       
+         100207  100208
SPOINT    100209                        
CBEAM       4091       2    2910    2857.3420201-.939693      0.        +       
+                       -15.43916.086574-1.35538-15.43916.086574-1.35538+       
+         100208  100209
SPOINT    100210                        
CBEAM       4092       2    2857    2804.3420201-.939693      0.        +       
+                       -15.43916.086574-1.35538-15.43916.086574-1.35538+       
+         100209  100210
SPOINT    100211                        
CBEAM       4093       2    2804    2751.3420201-.939693      0.        +       
+                       -15.43916.086574-1.35538-15.43916.086574-1.35538+       
+         100210  100211
SPOINT    100212                        
CBEAM       4094       2    2751    2698.3420201-.939693      0.        +       
+                       -15.43916.086574-1.35538-15.43916.086574-1.35538+       
+         100211  100212
SPOINT    100213                        
CBEAM       4095       2    2698    2645.3420201-.939693      0.        +       
+                       -15.43916.086574-1.35538-15.43916.086574-1.35538+       
+         100212  100213
SPOINT    100214                        
CBEAM       4096       2    2645    2592.3420201-.939693      0.        +       
+                       -15.43916.086574-1.35538-15.43916.086574-1.35538+       
+         100213  100214
SPOINT    100215                        
CBEAM       4097       2    2592    2539.3420201-.939693      0.        +       
+                       -15.43916.086574-1.35538-15.43916.086574-1.35538+       
+         100214  100215
SPOINT    100216                        
CBEAM       4098       2    2539    2486.3420201-.939693      0.        +       
+                       -15.43916.086574-1.35538-15.43916.086574-1.35538+       
+         100215  100216
SPOINT    100217                        
CBEAM       4099       2    2486    2433.3420201-.939693      0.        +       
+                       -15.43916.086574-1.35538-15.43916.086574-1.35538+       
+         100216  100217
SPOINT    100218                        
CBEAM       4100       2    2433    2380.3420201-.939693      0.        +       
+                       -15.43916.086574-1.35538-15.43916.086574-1.35538+       
+         100217  100218
SPOINT    100219                        
CBEAM       4101       2    2380    2327.3420201-.939693      0.        +       
+                       -15.43916.086574-1.35538-15.43916.086574-1.35538+       
+         100218  100219
SPOINT    100220                        
CBEAM       4102       2    2327    2274.3420201-.939693      0.        +       
+                       -15.43916.086574-1.35538-15.43916.086574-1.35538+       
+         100219  100220
SPOINT    100221                        
CBEAM       4103       2    2274    2221.3420201-.939693      0.        +       
+                       -15.43916.086574-1.35538-15.43916.086574-1.35538+       
+         100220  100221
SPOINT    100222                        
CBEAM       4104       2    2221    2168.3420201-.939693      0.        +       
+                       -15.43916.086574-1.35538-15.43916.086574-1.35538+       
+         100221  100222
SPOINT    100223                        
SPOINT    100224                        
CBEAM       4105       2    2108    4035.8660254     -.5      0.        +       
+                       -15.7394-5.26149-1.35538-15.7394-5.26149-1.35538+       
+         100223  100224
SPOINT    100225                        
CBEAM       4106       2    4035    3982.8660254     -.5      0.        +       
+                       -15.7394-5.26149-1.35538-15.7394-5.26149-1.35538+       
+         100224  100225
SPOINT    100226                        
CBEAM       4107       2    3982    3929.8660254     -.5      0.        +       
+                       -15.7394-5.26149-1.35538-15.7394-5.26149-1.35538+       
+         100225  100226
SPOINT    100227                        
CBEAM       4108       2    3929    3876.8660254     -.5      0.        +       
+                       -15.7394-5.26149-1.35538-15.7394-5.26149-1.35538+       
+         100226  100227
SPOINT    100228                        
CBEAM       4109       2    3876    3823.8660254     -.5      0.        +       
+                       -15.7394-5.26149-1.35538-15.7394-5.26149-1.35538+       
+         100227  100228
SPOINT    100229                        
CBEAM       4110       2    3823    3770.8660254     -.5      0.        +       
+                       -15.7394-5.26149-1.35538-15.7394-5.26149-1.35538+       
+         100228  100229
SPOINT    100230                        
CBEAM       4111       2    3770    3717.8660254     -.5      0.        +       
+                       -15.7394-5.26149-1.35538-15.7394-5.26149-1.35538+       
+         100229  100230
SPOINT    100231                        
CBEAM       4112       2    3717    3664.8660254     -.5      0.        +       
+                       -15.7394-5.26149-1.35538-15.7394-5.26149-1.35538+       
+         100230  100231
SPOINT    100232                        
CBEAM       4113       2    3664    3611.8660254     -.5      0.        +       
+                       -15.7394-5.26149-1.35538-15.7394-5.26149-1.35538+       
+         100231  100232
SPOINT    100233                        
CBEAM       4114       2    3611    3558.8660254     -.5      0.        +       
+                       -15.7394-5.26149-1.35538-15.7394-5.26149-1.35538+       
+         100232  100233
SPOINT    100234                        
CBEAM       4115       2    3558    3505.8660254     -.5      0.        +       
+                       -15.7394-5.26149-1.35538-15.7394-5.26149-1.35538+       
+         100233  100234
SPOINT    100235                        
CBEAM       4116       2    3505    3452.8660254     -.5      0.        +       
+                       -15.7394-5.26149-1.35538-15.7394-5.26149-1.35538+       
+         100234  100235
SPOINT    100236                        
CBEAM       4117       2    3452    3399.8660254     -.5      0.        +       
+                       -15.7394-5.26149-1.35538-15.7394-5.26149-1.35538+       
+         100235  100236
SPOINT    100237                        
CBEAM       4118       2    3399    3346.8660254     -.5      0.        +       
+                       -15.7394-5.26149-1.35538-15.7394-5.26149-1.35538+       
+         100236  100237
SPOINT    100238                        
CBEAM       4119       2    3346    3293.8660254     -.5      0.        +       
+                       -15.7394-5.26149-1.35538-15.7394-5.26149-1.35538+       
+         100237  100238
SPOINT    100239                        
CBEAM       4120       2    3293    3240.8660254     -.5      0.        +       
+                       -15.7394-5.26149-1.35538-15.7394-5.26149-1.35538+       
+         100238  100239
SPOINT    100240                        
CBEAM       4121       2    3240    3187.8660254     -.5      0.        +       
+                       -15.7394-5.26149-1.35538-15.7394-5.26149-1.35538+       
+         100239  100240
SPOINT    100241                        
CBEAM       4122       2    3187    3134.8660254     -.5      0.        +       
+                       -15.7394-5.26149-1.35538-15.7394-5.26149-1.35538+       
+         100240  100241
SPOINT    100242                        
CBEAM       4123       2    3134    3081.8660254     -.5      0.        +       
+                       -15.7394-5.26149-1.35538-15.7394-5.26149-1.35538+       
+         100241  100242
SPOINT    100243                        
CBEAM       4124       2    3081    3028.8660254     -.5      0.        +       
+                       -15.7394-5.26149-1.35538-15.7394-5.26149-1.35538+       
+         100242  100243
SPOINT    100244                        
CBEAM       4125       2    3028    2975.8660254     -.5      0.        +       
+                       -15.7394-5.26149-1.35538-15.7394-5.26149-1.35538+       
+         100243  100244
SPOINT    100245                        
CBEAM       4126       2    2975    2922.8660254     -.5      0.        +       
+                       -15.7394-5.26149-1.35538-15.7394-5.26149-1.35538+       
+         100244  100245
SPOINT    100246                        
CBEAM       4127       2    2922    2869.8660254     -.5      0.        +       
+                       -15.7394-5.26149-1.35538-15.7394-5.26149-1.35538+       
+         100245  100246
SPOINT    100247                        
CBEAM       4128       2    2869    2816.8660254     -.5      0.        +       
+                       -15.7394-5.26149-1.35538-15.7394-5.26149-1.35538+       
+         100246  100247
SPOINT    100248                        
CBEAM       4129       2    2816    2763.8660254     -.5      0.        +       
+                       -15.7394-5.26149-1.35538-15.7394-5.26149-1.35538+       
+         100247  100248
SPOINT    100249                        
CBEAM       4130       2    2763    2710.8660254     -.5      0.        +       
+                       -15.7394-5.26149-1.35538-15.7394-5.26149-1.35538+       
+         100248  100249
SPOINT    100250                        
CBEAM       4131       2    2710    2657.8660254     -.5      0.        +       
+                       -15.7394-5.26149-1.35538-15.7394-5.26149-1.35538+       
+         100249  100250
SPOINT    100251                        
CBEAM       4132       2    2657    2604.8660254     -.5      0.        +       
+                       -15.7394-5.26149-1.35538-15.7394-5.26149-1.35538+       
+         100250  100251
SPOINT    100252                        
CBEAM       4133       2    2604    2551.8660254     -.5      0.        +       
+                       -15.7394-5.26149-1.35538-15.7394-5.26149-1.35538+       
+         100251  100252
SPOINT    100253                        
CBEAM       4134       2    2551    2498.8660254     -.5      0.        +       
+                       -15.7394-5.26149-1.35538-15.7394-5.26149-1.35538+       
+         100252  100253
SPOINT    100254                        
CBEAM       4135       2    2498    2445.8660254     -.5      0.        +       
+                       -15.7394-5.26149-1.35538-15.7394-5.26149-1.35538+       
+         100253  100254
SPOINT    100255                        
CBEAM       4136       2    2445    2392.8660254     -.5      0.        +       
+                       -15.7394-5.26149-1.35538-15.7394-5.26149-1.35538+       
+         100254  100255
SPOINT    100256                        
CBEAM       4137       2    2392    2339.8660254     -.5      0.        +       
+                       -15.7394-5.26149-1.35538-15.7394-5.26149-1.35538+       
+         100255  100256
SPOINT    100257                        
CBEAM       4138       2    2339    2286.8660254     -.5      0.        +       
+                       -15.7394-5.26149-1.35538-15.7394-5.26149-1.35538+       
+         100256  100257
SPOINT    100258                        
CBEAM       4139       2    2286    2233.8660254     -.5      0.        +       
+                       -15.7394-5.26149-1.35538-15.7394-5.26149-1.35538+       
+         100257  100258
SPOINT    100259                        
CBEAM       4140       2    2233    2180.8660254     -.5      0.        +       
+                       -15.7394-5.26149-1.35538-15.7394-5.26149-1.35538+       
+         100258  100259
SPOINT    100260                        
SPOINT    100261                        
CBEAM       4141       2    2096    4047.9848078.1736482      0.        +       
+                       -8.67508-14.1476-1.35538-8.67508-14.1476-1.35538+       
+         100260  100261
SPOINT    100262                        
CBEAM       4142       2    4047    3994.9848078.1736482      0.        +       
+                       -8.67508-14.1476-1.35538-8.67508-14.1476-1.35538+       
+         100261  100262
SPOINT    100263                        
CBEAM       4143       2    3994    3941.9848078.1736482      0.        +       
+                       -8.67508-14.1476-1.35538-8.67508-14.1476-1.35538+       
+         100262  100263
SPOINT    100264                        
CBEAM       4144       2    3941    3888.9848078.1736482      0.        +       
+                       -8.67508-14.1476-1.35538-8.67508-14.1476-1.35538+       
+         100263  100264
SPOINT    100265                        
CBEAM       4145       2    3888    3835.9848078.1736482      0.        +       
+                       -8.67508-14.1476-1.35538-8.67508-14.1476-1.35538+       
+         100264  100265
SPOINT    100266                        
CBEAM       4146       2    3835    3782.9848078.1736482      0.        +       
+                       -8.67508-14.1476-1.35538-8.67508-14.1476-1.35538+       
+         100265  100266
SPOINT    100267                        
CBEAM       4147       2    3782    3729.9848078.1736482      0.        +       
+                       -8.67508-14.1476-1.35538-8.67508-14.1476-1.35538+       
+         100266  100267
SPOINT    100268                        
CBEAM       4148       2    3729    3676.9848078.1736482      0.        +       
+                       -8.67508-14.1476-1.35538-8.67508-14.1476-1.35538+       
+         100267  100268
SPOINT    100269                        
CBEAM       4149       2    3676    3623.9848078.1736482      0.        +       
+                       -8.67508-14.1476-1.35538-8.67508-14.1476-1.35538+       
+         100268  100269
SPOINT    100270                        
CBEAM       4150       2    3623    3570.9848078.1736482      0.        +       
+                       -8.67508-14.1476-1.35538-8.67508-14.1476-1.35538+       
+         100269  100270
SPOINT    100271                        
CBEAM       4151       2    3570    3517.9848078.1736482      0.        +       
+                       -8.67508-14.1476-1.35538-8.67508-14.1476-1.35538+       
+         100270  100271
SPOINT    100272                        
CBEAM       4152       2    3517    3464.9848078.1736482      0.        +       
+                       -8.67508-14.1476-1.35538-8.67508-14.1476-1.35538+       
+         100271  100272
SPOINT    100273                        
CBEAM       4153       2    3464    3411.9848078.1736482      0.        +       
+                       -8.67508-14.1476-1.35538-8.67508-14.1476-1.35538+       
+         100272  100273
SPOINT    100274                        
CBEAM       4154       2    3411    3358.9848078.1736482      0.        +       
+                       -8.67508-14.1476-1.35538-8.67508-14.1476-1.35538+       
+         100273  100274
SPOINT    100275                        
CBEAM       4155       2    3358    3305.9848078.1736482      0.        +       
+                       -8.67508-14.1476-1.35538-8.67508-14.1476-1.35538+       
+         100274  100275
SPOINT    100276                        
CBEAM       4156       2    3305    3252.9848078.1736482      0.        +       
+                       -8.67508-14.1476-1.35538-8.67508-14.1476-1.35538+       
+         100275  100276
SPOINT    100277                        
CBEAM       4157       2    3252    3199.9848078.1736482      0.        +       
+                       -8.67508-14.1476-1.35538-8.67508-14.1476-1.35538+       
+         100276  100277
SPOINT    100278                        
CBEAM       4158       2    3199    3146.9848078.1736482      0.        +       
+                       -8.67508-14.1476-1.35538-8.67508-14.1476-1.35538+       
+         100277  100278
SPOINT    100279                        
CBEAM       4159       2    3146    3093.9848078.1736482      0.        +       
+                       -8.67508-14.1476-1.35538-8.67508-14.1476-1.35538+       
+         100278  100279
SPOINT    100280                        
CBEAM       4160       2    3093    3040.9848078.1736482      0.        +       
+                       -8.67508-14.1476-1.35538-8.67508-14.1476-1.35538+       
+         100279  100280
SPOINT    100281                        
CBEAM       4161       2    3040    2987.9848078.1736482      0.        +       
+                       -8.67508-14.1476-1.35538-8.67508-14.1476-1.35538+       
+         100280  100281
SPOINT    100282                        
CBEAM       4162       2    2987    2934.9848078.1736482      0.        +       
+                       -8.67508-14.1476-1.35538-8.67508-14.1476-1.35538+       
+         100281  100282
SPOINT    100283                        
CBEAM       4163       2    2934    2881.9848078.1736482      0.        +       
+                       -8.67508-14.1476-1.35538-8.67508-14.1476-1.35538+       
+         100282  100283
SPOINT    100284                        
CBEAM       4164       2    2881    2828.9848078.1736482      0.        +       
+                       -8.67508-14.1476-1.35538-8.67508-14.1476-1.35538+       
+         100283  100284
SPOINT    100285                        
CBEAM       4165       2    2828    2775.9848078.1736482      0.        +       
+                       -8.67508-14.1476-1.35538-8.67508-14.1476-1.35538+       
+         100284  100285
SPOINT    100286                        
CBEAM       4166       2    2775    2722.9848078.1736482      0.        +       
+                       -8.67508-14.1476-1.35538-8.67508-14.1476-1.35538+       
+         100285  100286
SPOINT    100287                        
CBEAM       4167       2    2722    2669.9848078.1736482      0.        +       
+                       -8.67508-14.1476-1.35538-8.67508-14.1476-1.35538+       
+         100286  100287
SPOINT    100288                        
CBEAM       4168       2    2669    2616.9848078.1736482      0.        +       
+                       -8.67508-14.1476-1.35538-8.67508-14.1476-1.35538+       
+         100287  100288
SPOINT    100289                        
CBEAM       4169       2    2616    2563.9848078.1736482      0.        +       
+                       -8.67508-14.1476-1.35538-8.67508-14.1476-1.35538+       
+         100288  100289
SPOINT    100290                        
CBEAM       4170       2    2563    2510.9848078.1736482      0.        +       
+                       -8.67508-14.1476-1.35538-8.67508-14.1476-1.35538+       
+         100289  100290
SPOINT    100291                        
CBEAM       4171       2    2510    2457.9848078.1736482      0.        +       
+                       -8.67508-14.1476-1.35538-8.67508-14.1476-1.35538+       
+         100290  100291
SPOINT    100292                        
CBEAM       4172       2    2457    2404.9848078.1736482      0.        +       
+                       -8.67508-14.1476-1.35538-8.67508-14.1476-1.35538+       
+         100291  100292
SPOINT    100293                        
CBEAM       4173       2    2404    2351.9848078.1736482      0.        +       
+                       -8.67508-14.1476-1.35538-8.67508-14.1476-1.35538+       
+         100292  100293
SPOINT    100294                        
CBEAM       4174       2    2351    2298.9848078.1736482      0.        +       
+                       -8.67508-14.1476-1.35538-8.67508-14.1476-1.35538+       
+         100293  100294
SPOINT    100295                        
CBEAM       4175       2    2298    2245.9848078.1736482      0.        +       
+                       -8.67508-14.1476-1.35538-8.67508-14.1476-1.35538+       
+         100294  100295
SPOINT    100296                        
CBEAM       4176       2    2245    2192.9848078.1736482      0.        +       
+                       -8.67508-14.1476-1.35538-8.67508-14.1476-1.35538+       
+         100295  100296
SPOINT    100297                        
SPOINT    100298                        
CBEAM       4177       2    2084    4059.6427876.7660444      0.        +       
+                       2.448435 -16.414-1.355382.448435 -16.414-1.35538+       
+         100297  100298
SPOINT    100299                        
CBEAM       4178       2    4059    4006.6427876.7660444      0.        +       
+                       2.448435 -16.414-1.355382.448435 -16.414-1.35538+       
+         100298  100299
SPOINT    100300                        
CBEAM       4179       2    4006    3953.6427876.7660444      0.        +       
+                       2.448435 -16.414-1.355382.448435 -16.414-1.35538+       
+         100299  100300
SPOINT    100301                        
CBEAM       4180       2    3953    3900.6427876.7660444      0.        +       
+                       2.448435 -16.414-1.355382.448435 -16.414-1.35538+       
+         100300  100301
SPOINT    100302                        
CBEAM       4181       2    3900    3847.6427876.7660444      0.        +       
+                       2.448435 -16.414-1.355382.448435 -16.414-1.35538+       
+         100301  100302
SPOINT    100303                        
CBEAM       4182       2    3847    3794.6427876.7660444      0.        +       
+                       2.448435 -16.414-1.355382.448435 -16.414-1.35538+       
+         100302  100303
SPOINT    100304                        
CBEAM       4183       2    3794    3741.6427876.7660444      0.        +       
+                       2.448435 -16.414-1.355382.448435 -16.414-1.35538+       
+         100303  100304
SPOINT    100305                        
CBEAM       4184       2    3741    3688.6427876.7660444      0.        +       
+                       2.448435 -16.414-1.355382.448435 -16.414-1.35538+       
+         100304  100305
SPOINT    100306                        
CBEAM       4185       2    3688    3635.6427876.7660444      0.        +       
+                       2.448435 -16.414-1.355382.448435 -16.414-1.35538+       
+         100305  100306
SPOINT    100307                        
CBEAM       4186       2    3635    3582.6427876.7660444      0.        +       
+                       2.448435 -16.414-1.355382.448435 -16.414-1.35538+       
+         100306  100307
SPOINT    100308                        
CBEAM       4187       2    3582    3529.6427876.7660444      0.        +       
+                       2.448435 -16.414-1.355382.448435 -16.414-1.35538+       
+         100307  100308
SPOINT    100309                        
CBEAM       4188       2    3529    3476.6427876.7660444      0.        +       
+                       2.448435 -16.414-1.355382.448435 -16.414-1.35538+       
+         100308  100309
SPOINT    100310                        
CBEAM       4189       2    3476    3423.6427876.7660444      0.        +       
+                       2.448435 -16.414-1.355382.448435 -16.414-1.35538+       
+         100309  100310
SPOINT    100311                        
CBEAM       4190       2    3423    3370.6427876.7660444      0.        +       
+                       2.448435 -16.414-1.355382.448435 -16.414-1.35538+       
+         100310  100311
SPOINT    100312                        
CBEAM       4191       2    3370    3317.6427876.7660444      0.        +       
+                       2.448435 -16.414-1.355382.448435 -16.414-1.35538+       
+         100311  100312
SPOINT    100313                        
CBEAM       4192       2    3317    3264.6427876.7660444      0.        +       
+                       2.448435 -16.414-1.355382.448435 -16.414-1.35538+       
+         100312  100313
SPOINT    100314                        
CBEAM       4193       2    3264    3211.6427876.7660444      0.        +       
+                       2.448435 -16.414-1.355382.448435 -16.414-1.35538+       
+         100313  100314
SPOINT    100315                        
CBEAM       4194       2    3211    3158.6427876.7660444      0.        +       
+                       2.448435 -16.414-1.355382.448435 -16.414-1.35538+       
+         100314  100315
SPOINT    100316                        
CBEAM       4195       2    3158    3105.6427876.7660444      0.        +       
+                       2.448435 -16.414-1.355382.448435 -16.414-1.35538+       
+         100315  100316
SPOINT    100317                        
CBEAM       4196       2    3105    3052.6427876.7660444      0.        +       
+                       2.448435 -16.414-1.355382.448435 -16.414-1.35538+       
+         100316  100317
SPOINT    100318                        
CBEAM       4197       2    3052    2999.6427876.7660444      0.        +       
+                       2.448435 -16.414-1.355382.448435 -16.414-1.35538+       
+         100317  100318
SPOINT    100319                        
CBEAM       4198       2    2999    2946.6427876.7660444      0.        +       
+                       2.448435 -16.414-1.355382.448435 -16.414-1.35538+       
+         100318  100319
SPOINT    100320                        
CBEAM       4199       2    2946    2893.6427876.7660444      0.        +       
+                       2.448435 -16.414-1.355382.448435 -16.414-1.35538+       
+         100319  100320
SPOINT    100321                        
CBEAM       4200       2    2893    2840.6427876.7660444      0.        +       
+                       2.448435 -16.414-1.355382.448435 -16.414-1.35538+       
+         100320  100321
SPOINT    100322                        
CBEAM       4201       2    2840    2787.6427876.7660444      0.        +       
+                       2.448435 -16.414-1.355382.448435 -16.414-1.35538+       
+         100321  100322
SPOINT    100323                        
CBEAM       4202       2    2787    2734.6427876.7660444      0.        +       
+                       2.448435 -16.414-1.355382.448435 -16.414-1.35538+       
+         100322  100323
SPOINT    100324                        
CBEAM       4203       2    2734    2681.6427876.7660444      0.        +       
+                       2.448435 -16.414-1.355382.448435 -16.414-1.35538+       
+         100323  100324
SPOINT    100325                        
CBEAM       4204       2    2681    2628.6427876.7660444      0.        +       
+                       2.448435 -16.414-1.355382.448435 -16.414-1.35538+       
+         100324  100325
SPOINT    100326                        
CBEAM       4205       2    2628    2575.6427876.7660444      0.        +       
+                       2.448435 -16.414-1.355382.448435 -16.414-1.35538+       
+         100325  100326
SPOINT    100327                        
CBEAM       4206       2    2575    2522.6427876.7660444      0.        +       
+                       2.448435 -16.414-1.355382.448435 -16.414-1.35538+       
+         100326  100327
SPOINT    100328                        
CBEAM       4207       2    2522    2469.6427876.7660444      0.        +       
+                       2.448435 -16.414-1.355382.448435 -16.414-1.35538+       
+         100327  100328
SPOINT    100329                        
CBEAM       4208       2    2469    2416.6427876.7660444      0.        +       
+                       2.448435 -16.414-1.355382.448435 -16.414-1.35538+       
+         100328  100329
SPOINT    100330                        
CBEAM       4209       2    2416    2363.6427876.7660444      0.        +       
+                       2.448435 -16.414-1.355382.448435 -16.414-1.35538+       
+         100329  100330
SPOINT    100331                        
CBEAM       4210       2    2363    2310.6427876.7660444      0.        +       
+                       2.448435 -16.414-1.355382.448435 -16.414-1.35538+       
+         100330  100331
SPOINT    100332                        
CBEAM       4211       2    2310    2257.6427876.7660444      0.        +       
+                       2.448435 -16.414-1.355382.448435 -16.414-1.35538+       
+         100331  100332
SPOINT    100333                        
CBEAM       4212       2    2257    2204.6427876.7660444      0.        +       
+                       2.448435 -16.414-1.355382.448435 -16.414-1.35538+       
+         100332  100333
RBE2        4213    2036  123456      91      92      93      94      95+       
+             96      97      98      99     100     101     102     103+       
+            104     105     106     107     108     109     110     111+       
+            112     113     114     115     116     117     118     119+       
+            120     121     122     123     124     125     126     127+       
+            128     129     130     131     132     133     134     135+       
+            136     137     138     139     140     141     142     143+       
+            144     145    2163    2164    2165    2166    2167    2168+       
+           2169    2170    2171    2172    2173    2174    2175    2176+       
+           2177    2178    2179    2180    2181    2182    2183    2184+       
+           2185    2186    2187    2188    2189    2190    2191    2192+       
+           2193    2194    2195    2196    2197    2198    2199    2200+       
+           2201    2202    2203    2204    2205    2206    2207    2208+       
+           2209    2210    2211    2212    2213    2214    2215
RBE2        4214    2037  123456       1       2       3       4       5+       
+              6       7       8       9      10      11      12      13+       
+             14      15      16      17      18      19      20      21+       
+             22      23      24      25      26      27      28      29+       
+             30      31      32      33      34      35      36      37+       
+             38      39      40      41      42      43      44      45+       
+             46      47      48      49      50      51      52      53+       
+             54      55    2073    2074    2075    2076    2077    2078+       
+           2079    2080    2081    2082    2083    2084    2085    2086+       
+           2087    2088    2089    2090    2091    2092    2093    2094+       
+           2095    2096    2097    2098    2099    2100    2101    2102+       
+           2103    2104    2105    2106    2107    2108    2109    2110+       
+           2111    2112    2113    2114    2115    2116    2117    2118+       
+           2119    2120    2121    2122    2123    2124    2125
ENDDATA
